<?xml version="1.0" encoding="UTF-8"?>

<!-- generated on 11/19/23 17:32:11 by Eclipse SUMO netconvert Version 1.3.1
<configuration xmlns:xsi="http://www.w3.org/2001/XMLSchema-instance" xsi:noNamespaceSchemaLocation="http://sumo.dlr.de/xsd/netconvertConfiguration.xsd">

    <input>
        <osm-files value="map.osm"/>
    </input>

    <output>
        <output-file value="centreurbain.net.xml"/>
    </output>

    <projection>
        <proj.utm value="true"/>
    </projection>

    <processing>
        <geometry.remove value="true"/>
        <roundabouts.guess value="true"/>
    </processing>

    <tls_building>
        <tls.discard-simple value="true"/>
        <tls.join value="true"/>
        <tls.guess-signals value="true"/>
    </tls_building>

    <ramp_guessing>
        <ramps.guess value="true"/>
    </ramp_guessing>

    <junctions>
        <junctions.join value="true"/>
    </junctions>

</configuration>
-->

<net version="1.3" junctionCornerDetail="5" limitTurnSpeed="5.50" xmlns:xsi="http://www.w3.org/2001/XMLSchema-instance" xsi:noNamespaceSchemaLocation="http://sumo.dlr.de/xsd/net_file.xsd">

    <location netOffset="-606117.41,-4075798.37" convBoundary="0.00,0.00,1903.69,3554.32" origBoundary="10.190027,36.822020,10.211375,36.854015" projParameter="+proj=utm +zone=32 +ellps=WGS84 +datum=WGS84 +units=m +no_defs"/>

    <type id="highway.bridleway" priority="1" numLanes="1" speed="2.78" allow="pedestrian" oneway="1" width="2.00"/>
    <type id="highway.bus_guideway" priority="1" numLanes="1" speed="27.78" allow="bus" oneway="1"/>
    <type id="highway.cycleway" priority="1" numLanes="1" speed="8.33" allow="bicycle" oneway="0" width="1.00"/>
    <type id="highway.footway" priority="1" numLanes="1" speed="2.78" allow="pedestrian" oneway="1" width="2.00"/>
    <type id="highway.ford" priority="1" numLanes="1" speed="2.78" allow="army" oneway="0"/>
    <type id="highway.living_street" priority="2" numLanes="1" speed="2.78" disallow="tram rail_urban rail rail_electric rail_fast ship" oneway="0"/>
    <type id="highway.motorway" priority="14" numLanes="2" speed="39.44" allow="private emergency authority army vip passenger hov taxi bus coach delivery truck trailer motorcycle evehicle custom1 custom2" oneway="1"/>
    <type id="highway.motorway_link" priority="9" numLanes="1" speed="22.22" allow="private emergency authority army vip passenger hov taxi bus coach delivery truck trailer motorcycle evehicle custom1 custom2" oneway="1"/>
    <type id="highway.path" priority="1" numLanes="1" speed="2.78" allow="pedestrian bicycle" oneway="1" width="2.00"/>
    <type id="highway.pedestrian" priority="1" numLanes="1" speed="2.78" allow="pedestrian" oneway="1" width="2.00"/>
    <type id="highway.primary" priority="12" numLanes="2" speed="27.78" disallow="tram rail_urban rail rail_electric rail_fast ship" oneway="0"/>
    <type id="highway.primary_link" priority="7" numLanes="1" speed="22.22" disallow="tram rail_urban rail rail_electric rail_fast ship" oneway="0"/>
    <type id="highway.raceway" priority="15" numLanes="2" speed="83.33" allow="vip" oneway="0"/>
    <type id="highway.residential" priority="3" numLanes="1" speed="13.89" disallow="tram rail_urban rail rail_electric rail_fast ship" oneway="0"/>
    <type id="highway.secondary" priority="11" numLanes="2" speed="27.78" disallow="tram rail_urban rail rail_electric rail_fast ship" oneway="0"/>
    <type id="highway.secondary_link" priority="6" numLanes="1" speed="22.22" disallow="tram rail_urban rail rail_electric rail_fast ship" oneway="0"/>
    <type id="highway.service" priority="1" numLanes="1" speed="5.56" allow="pedestrian delivery bicycle" oneway="0"/>
    <type id="highway.stairs" priority="1" numLanes="1" speed="1.39" allow="pedestrian" oneway="1" width="2.00"/>
    <type id="highway.step" priority="1" numLanes="1" speed="1.39" allow="pedestrian" oneway="1" width="2.00"/>
    <type id="highway.steps" priority="1" numLanes="1" speed="1.39" allow="pedestrian" oneway="1" width="2.00"/>
    <type id="highway.tertiary" priority="10" numLanes="1" speed="22.22" disallow="tram rail_urban rail rail_electric rail_fast ship" oneway="0"/>
    <type id="highway.tertiary_link" priority="5" numLanes="1" speed="22.22" disallow="tram rail_urban rail rail_electric rail_fast ship" oneway="0"/>
    <type id="highway.track" priority="1" numLanes="1" speed="5.56" disallow="tram rail_urban rail rail_electric rail_fast ship" oneway="0"/>
    <type id="highway.trunk" priority="13" numLanes="2" speed="27.78" disallow="pedestrian bicycle tram rail_urban rail rail_electric rail_fast ship" oneway="0"/>
    <type id="highway.trunk_link" priority="8" numLanes="1" speed="22.22" disallow="pedestrian bicycle tram rail_urban rail rail_electric rail_fast ship" oneway="0"/>
    <type id="highway.unclassified" priority="4" numLanes="1" speed="13.89" disallow="tram rail_urban rail rail_electric rail_fast ship" oneway="0"/>
    <type id="highway.unsurfaced" priority="1" numLanes="1" speed="8.33" disallow="tram rail_urban rail rail_electric rail_fast ship" oneway="0"/>
    <type id="railway.highspeed" priority="21" numLanes="1" speed="69.44" allow="rail_fast" oneway="1"/>
    <type id="railway.light_rail" priority="19" numLanes="1" speed="27.78" allow="rail_urban" oneway="1"/>
    <type id="railway.preserved" priority="16" numLanes="1" speed="27.78" allow="rail" oneway="1"/>
    <type id="railway.rail" priority="20" numLanes="1" speed="44.44" allow="rail" oneway="1"/>
    <type id="railway.subway" priority="18" numLanes="1" speed="27.78" allow="rail_urban" oneway="1"/>
    <type id="railway.tram" priority="17" numLanes="1" speed="13.89" allow="tram" oneway="1"/>

    <edge id=":10028972728_0" function="internal">
        <lane id=":10028972728_0_0" index="0" allow="pedestrian delivery bicycle" speed="3.65" length="4.67" shape="1183.85,1540.44 1185.18,1539.88 1186.07,1539.99 1186.51,1540.77 1186.51,1542.21"/>
    </edge>
    <edge id=":10029107371_0" function="internal">
        <lane id=":10029107371_0_0" index="0" disallow="tram rail_urban rail rail_electric rail_fast ship" speed="22.22" length="9.71" shape="1425.67,2047.94 1421.20,2056.56"/>
    </edge>
    <edge id=":10029107371_1" function="internal">
        <lane id=":10029107371_1_0" index="0" allow="pedestrian delivery bicycle" speed="6.69" length="5.36" shape="1425.67,2047.94 1423.70,2050.71 1421.96,2051.62"/>
    </edge>
    <edge id=":10029107371_2" function="internal">
        <lane id=":10029107371_2_0" index="0" disallow="tram rail_urban rail rail_electric rail_fast ship" speed="3.65" length="2.34" shape="1425.67,2047.94 1424.41,2048.64 1423.52,2048.63"/>
    </edge>
    <edge id=":10029107371_9" function="internal">
        <lane id=":10029107371_9_0" index="0" allow="pedestrian delivery bicycle" speed="6.69" length="6.47" shape="1421.96,2051.62 1421.47,2051.88 1418.99,2051.44 1416.27,2049.40"/>
    </edge>
    <edge id=":10029107371_10" function="internal">
        <lane id=":10029107371_10_0" index="0" disallow="tram rail_urban rail rail_electric rail_fast ship" speed="3.65" length="2.34" shape="1423.52,2048.63 1422.99,2047.90 1422.83,2046.47"/>
    </edge>
    <edge id=":10029107371_3" function="internal">
        <lane id=":10029107371_3_0" index="0" disallow="tram rail_urban rail rail_electric rail_fast ship" speed="4.78" length="5.42" shape="1418.53,2047.14 1419.78,2048.07 1420.91,2048.27 1421.93,2047.74 1422.83,2046.47"/>
    </edge>
    <edge id=":10029107371_4" function="internal">
        <lane id=":10029107371_4_0" index="0" disallow="tram rail_urban rail rail_electric rail_fast ship" speed="7.88" length="10.53" shape="1418.53,2047.14 1420.57,2049.59 1421.69,2051.98 1421.90,2054.30 1421.20,2056.56"/>
    </edge>
    <edge id=":10029107371_5" function="internal">
        <lane id=":10029107371_5_0" index="0" allow="pedestrian delivery bicycle" speed="3.65" length="4.67" shape="1418.53,2047.14 1418.82,2048.55 1418.53,2049.40 1417.68,2049.68 1416.27,2049.40"/>
    </edge>
    <edge id=":10029107371_6" function="internal">
        <lane id=":10029107371_6_0" index="0" allow="pedestrian delivery bicycle" speed="6.31" length="6.47" shape="1418.36,2055.09 1418.69,2053.84 1418.45,2052.48 1417.65,2051.00 1416.27,2049.40"/>
    </edge>
    <edge id=":10029107371_7" function="internal">
        <lane id=":10029107371_7_0" index="0" disallow="tram rail_urban rail rail_electric rail_fast ship" speed="22.22" length="9.71" shape="1418.36,2055.09 1422.83,2046.47"/>
    </edge>
    <edge id=":10029107371_8" function="internal">
        <lane id=":10029107371_8_0" index="0" disallow="tram rail_urban rail rail_electric rail_fast ship" speed="3.65" length="2.34" shape="1418.36,2055.09 1419.62,2054.39 1420.52,2054.41"/>
    </edge>
    <edge id=":10029107371_11" function="internal">
        <lane id=":10029107371_11_0" index="0" disallow="tram rail_urban rail rail_electric rail_fast ship" speed="3.65" length="2.34" shape="1420.52,2054.41 1421.04,2055.13 1421.20,2056.56"/>
    </edge>
    <edge id=":10041120439_0" function="internal">
        <lane id=":10041120439_0_0" index="0" disallow="tram rail_urban rail rail_electric rail_fast ship" speed="3.65" length="4.67" shape="254.89,1943.91 253.69,1943.11 253.28,1942.31 253.68,1941.51 254.88,1940.71"/>
    </edge>
    <edge id=":10046472963_0" function="internal">
        <lane id=":10046472963_0_0" index="0" allow="private emergency authority army vip passenger hov taxi bus coach delivery truck trailer motorcycle evehicle custom1 custom2" speed="29.44" length="0.10" shape="1033.11,2539.27 1033.11,2539.27"/>
        <lane id=":10046472963_0_1" index="1" allow="private emergency authority army vip passenger hov taxi bus coach delivery truck trailer motorcycle evehicle custom1 custom2" speed="29.44" length="0.10" shape="1036.30,2539.07 1036.30,2539.07"/>
    </edge>
    <edge id=":10046747330_0" function="internal">
        <lane id=":10046747330_0_0" index="0" allow="private emergency authority army vip passenger hov taxi bus coach delivery truck trailer motorcycle evehicle custom1 custom2" speed="29.44" length="0.29" shape="1036.56,2250.52 1036.57,2250.74"/>
        <lane id=":10046747330_0_1" index="1" allow="private emergency authority army vip passenger hov taxi bus coach delivery truck trailer motorcycle evehicle custom1 custom2" speed="29.44" length="0.29" shape="1033.36,2250.63 1033.37,2250.90"/>
        <lane id=":10046747330_0_2" index="2" allow="private emergency authority army vip passenger hov taxi bus coach delivery truck trailer motorcycle evehicle custom1 custom2" speed="29.44" length="0.29" shape="1030.16,2250.75 1030.18,2251.06"/>
        <lane id=":10046747330_0_3" index="3" allow="private emergency authority army vip passenger hov taxi bus coach delivery truck trailer motorcycle evehicle custom1 custom2" speed="29.44" length="0.29" shape="1026.97,2250.87 1026.98,2251.22"/>
    </edge>
    <edge id=":10053391059_0" function="internal">
        <lane id=":10053391059_0_0" index="0" disallow="tram rail_urban rail rail_electric rail_fast ship" speed="11.11" length="0.10" shape="730.95,2280.09 730.95,2280.09"/>
    </edge>
    <edge id=":10148861491_0" function="internal">
        <lane id=":10148861491_0_0" index="0" disallow="tram rail_urban rail rail_electric rail_fast ship" speed="6.50" length="9.03" shape="802.65,2572.42 805.00,2573.19 807.04,2573.01 808.75,2571.90 810.13,2569.85"/>
    </edge>
    <edge id=":10148861491_1" function="internal">
        <lane id=":10148861491_1_0" index="0" disallow="tram rail_urban rail rail_electric rail_fast ship" speed="3.65" length="2.56" shape="802.65,2572.42 803.37,2573.67 803.38,2574.56 803.21,2574.70"/>
    </edge>
    <edge id=":10148861491_4" function="internal">
        <lane id=":10148861491_4_0" index="0" disallow="tram rail_urban rail rail_electric rail_fast ship" speed="3.65" length="2.12" shape="803.21,2574.70 802.67,2575.10 801.24,2575.30"/>
    </edge>
    <edge id=":10148861491_2" function="internal">
        <lane id=":10148861491_2_0" index="0" disallow="tram rail_urban rail rail_electric rail_fast ship" speed="6.52" length="9.05" shape="803.83,2582.80 804.59,2580.44 804.41,2578.41 803.29,2576.69 801.24,2575.30"/>
    </edge>
    <edge id=":10148861491_3" function="internal">
        <lane id=":10148861491_3_0" index="0" disallow="tram rail_urban rail rail_electric rail_fast ship" speed="13.89" length="14.40" shape="803.83,2582.80 810.13,2569.85"/>
    </edge>
    <edge id=":10148861492_0" function="internal">
        <lane id=":10148861492_0_0" index="0" disallow="tram rail_urban rail rail_electric rail_fast ship" speed="6.07" length="1.14" shape="711.41,2531.28 710.56,2530.52"/>
    </edge>
    <edge id=":10148861492_1" function="internal">
        <lane id=":10148861492_1_0" index="0" disallow="tram rail_urban rail rail_electric rail_fast ship" speed="3.65" length="1.18" shape="711.41,2531.28 710.81,2530.26"/>
    </edge>
    <edge id=":10148861492_4" function="internal">
        <lane id=":10148861492_4_0" index="0" disallow="tram rail_urban rail rail_electric rail_fast ship" speed="6.07" length="6.65" shape="710.56,2530.52 710.34,2530.32 709.99,2528.83 710.35,2526.81 711.42,2524.25"/>
    </edge>
    <edge id=":10148861492_5" function="internal">
        <lane id=":10148861492_5_0" index="0" disallow="tram rail_urban rail rail_electric rail_fast ship" speed="3.65" length="3.49" shape="710.81,2530.26 710.68,2530.04 710.67,2529.14 711.39,2528.60 712.82,2528.41"/>
    </edge>
    <edge id=":10148861492_2" function="internal">
        <lane id=":10148861492_2_0" index="0" disallow="tram rail_urban rail rail_electric rail_fast ship" speed="13.89" length="9.40" shape="707.18,2532.64 711.42,2524.25"/>
    </edge>
    <edge id=":10148861492_3" function="internal">
        <lane id=":10148861492_3_0" index="0" disallow="tram rail_urban rail rail_electric rail_fast ship" speed="6.11" length="7.77" shape="707.18,2532.64 708.60,2530.28 710.01,2528.78 711.41,2528.16 712.82,2528.41"/>
    </edge>
    <edge id=":10316230944_0" function="internal">
        <lane id=":10316230944_0_0" index="0" allow="pedestrian delivery bicycle" speed="5.56" length="0.22" shape="724.11,2059.96 724.06,2060.00 724.02,2060.03 723.99,2060.06 723.94,2060.10"/>
    </edge>
    <edge id=":10316230944_1" function="internal">
        <lane id=":10316230944_1_0" index="0" allow="pedestrian delivery bicycle" speed="5.56" length="0.65" shape="721.71,2057.80 721.85,2057.67 721.95,2057.58 722.06,2057.50 722.21,2057.38"/>
    </edge>
    <edge id=":10316230956_0" function="internal">
        <lane id=":10316230956_0_0" index="0" allow="pedestrian delivery bicycle" speed="5.56" length="5.69" shape="785.67,2096.34 784.49,2095.82 783.19,2095.66 781.76,2095.85 780.19,2096.38"/>
    </edge>
    <edge id=":10316230956_1" function="internal">
        <lane id=":10316230956_1_0" index="0" allow="pedestrian delivery bicycle" speed="5.56" length="8.43" shape="785.67,2096.34 784.02,2094.99 782.92,2093.33 782.38,2091.36 782.39,2089.09"/>
    </edge>
    <edge id=":10316230956_2" function="internal">
        <lane id=":10316230956_2_0" index="0" allow="pedestrian delivery bicycle" speed="3.65" length="4.67" shape="785.67,2096.34 785.07,2095.03 785.15,2094.13 785.92,2093.67 787.36,2093.62"/>
    </edge>
    <edge id=":10316230956_3" function="internal">
        <lane id=":10316230956_3_0" index="0" allow="pedestrian delivery bicycle" speed="5.56" length="5.81" shape="785.69,2088.28 785.77,2090.21 786.08,2091.75 786.61,2092.89 787.36,2093.62"/>
    </edge>
    <edge id=":10316230956_4" function="internal">
        <lane id=":10316230956_4_0" index="0" allow="pedestrian delivery bicycle" speed="5.56" length="10.40" shape="785.69,2088.28 785.32,2090.93 784.28,2093.17 782.57,2094.99 780.19,2096.38"/>
    </edge>
    <edge id=":10316230956_5" function="internal">
        <lane id=":10316230956_5_0" index="0" allow="pedestrian delivery bicycle" speed="3.77" length="4.96" shape="785.69,2088.28 785.17,2089.72 784.45,2090.33 783.52,2090.13 782.39,2089.09"/>
    </edge>
    <edge id=":10316230956_6" function="internal">
        <lane id=":10316230956_6_0" index="0" allow="pedestrian delivery bicycle" speed="5.56" length="5.25" shape="779.51,2093.19 780.64,2092.52 781.49,2091.61 782.08,2090.47 782.39,2089.09"/>
    </edge>
    <edge id=":10316230956_7" function="internal">
        <lane id=":10316230956_7_0" index="0" allow="pedestrian delivery bicycle" speed="5.56" length="8.18" shape="779.51,2093.19 781.58,2092.53 783.57,2092.38 785.50,2092.74 787.36,2093.62"/>
    </edge>
    <edge id=":10316230956_8" function="internal">
        <lane id=":10316230956_8_0" index="0" allow="pedestrian delivery bicycle" speed="3.68" length="4.77" shape="779.51,2093.19 780.88,2093.73 781.45,2094.45 781.22,2095.33 780.19,2096.38"/>
    </edge>
    <edge id=":10316230957_0" function="internal">
        <lane id=":10316230957_0_0" index="0" disallow="tram rail_urban rail rail_electric rail_fast ship" speed="4.98" length="5.07" shape="791.64,2096.29 792.92,2096.85 794.05,2096.85 795.04,2096.29 795.88,2095.16"/>
    </edge>
    <edge id=":10316230957_1" function="internal">
        <lane id=":10316230957_1_0" index="0" allow="pedestrian delivery bicycle" speed="3.65" length="4.67" shape="791.64,2096.29 792.23,2097.60 792.15,2098.49 791.39,2098.96 789.94,2099.00"/>
    </edge>
    <edge id=":10316230957_2" function="internal">
        <lane id=":10316230957_2_0" index="0" allow="pedestrian delivery bicycle" speed="5.25" length="5.25" shape="791.39,2103.44 791.84,2102.17 791.75,2101.01 791.12,2099.95 789.94,2099.00"/>
    </edge>
    <edge id=":10316230957_3" function="internal">
        <lane id=":10316230957_3_0" index="0" disallow="tram rail_urban rail rail_electric rail_fast ship" speed="22.22" length="9.41" shape="791.39,2103.44 795.88,2095.16"/>
    </edge>
    <edge id=":10822370698_0" function="internal">
        <lane id=":10822370698_0_0" index="0" allow="pedestrian delivery bicycle" speed="3.65" length="4.67" shape="520.27,2512.46 519.00,2513.15 518.11,2513.12 517.59,2512.40 517.45,2510.96"/>
    </edge>
    <edge id=":10822370699_0" function="internal">
        <lane id=":10822370699_0_0" index="0" allow="pedestrian delivery bicycle" speed="3.65" length="4.67" shape="689.57,2185.64 690.83,2184.95 691.73,2184.97 692.25,2185.69 692.40,2187.13"/>
    </edge>
    <edge id=":10822372137_0" function="internal">
        <lane id=":10822372137_0_0" index="0" allow="pedestrian delivery bicycle" speed="5.56" length="6.37" shape="632.42,2309.77 630.76,2309.26 629.32,2309.40 628.09,2310.17 627.07,2311.57"/>
    </edge>
    <edge id=":10822372137_1" function="internal">
        <lane id=":10822372137_1_0" index="0" allow="pedestrian delivery bicycle" speed="5.56" length="10.28" shape="632.42,2309.77 622.90,2305.89"/>
    </edge>
    <edge id=":10822372137_2" function="internal">
        <lane id=":10822372137_2_0" index="0" allow="pedestrian delivery bicycle" speed="5.56" length="10.68" shape="632.42,2309.77 629.79,2308.11 628.34,2306.12 628.05,2303.80 628.94,2301.17"/>
    </edge>
    <edge id=":10822372137_3" function="internal">
        <lane id=":10822372137_3_0" index="0" allow="pedestrian delivery bicycle" speed="3.66" length="4.69" shape="632.42,2309.77 631.52,2308.63 631.39,2307.74 632.02,2307.10 633.42,2306.72"/>
    </edge>
    <edge id=":10822372137_4" function="internal">
        <lane id=":10822372137_4_0" index="0" allow="pedestrian delivery bicycle" speed="4.99" length="5.04" shape="631.77,2302.66 631.35,2303.90 631.49,2304.99 632.18,2305.93 633.42,2306.72"/>
    </edge>
    <edge id=":10822372137_5" function="internal">
        <lane id=":10822372137_5_0" index="0" allow="pedestrian delivery bicycle" speed="5.56" length="10.08" shape="631.77,2302.66 627.07,2311.57"/>
    </edge>
    <edge id=":10822372137_6" function="internal">
        <lane id=":10822372137_6_0" index="0" allow="pedestrian delivery bicycle" speed="5.56" length="10.71" shape="631.77,2302.66 630.02,2305.13 627.96,2306.50 625.59,2306.75 622.90,2305.89"/>
    </edge>
    <edge id=":10822372137_7" function="internal">
        <lane id=":10822372137_7_0" index="0" allow="pedestrian delivery bicycle" speed="3.65" length="4.67" shape="631.77,2302.66 630.51,2303.35 629.61,2303.33 629.09,2302.60 628.94,2301.17"/>
    </edge>
    <edge id=":10822372137_8" function="internal">
        <lane id=":10822372137_8_0" index="0" allow="pedestrian delivery bicycle" speed="5.34" length="5.64" shape="624.32,2303.03 625.69,2303.45 626.92,2303.28 628.00,2302.52 628.94,2301.17"/>
    </edge>
    <edge id=":10822372137_9" function="internal">
        <lane id=":10822372137_9_0" index="0" allow="pedestrian delivery bicycle" speed="5.56" length="9.82" shape="624.32,2303.03 633.42,2306.72"/>
    </edge>
    <edge id=":10822372137_10" function="internal">
        <lane id=":10822372137_10_0" index="0" allow="pedestrian delivery bicycle" speed="5.56" length="10.30" shape="624.32,2303.03 626.65,2304.63 627.89,2306.59 628.03,2308.91 627.07,2311.57"/>
    </edge>
    <edge id=":10822372137_11" function="internal">
        <lane id=":10822372137_11_0" index="0" allow="pedestrian delivery bicycle" speed="3.65" length="4.67" shape="624.32,2303.03 625.04,2304.28 625.04,2305.17 624.33,2305.71 622.90,2305.89"/>
    </edge>
    <edge id=":10822372137_12" function="internal">
        <lane id=":10822372137_12_0" index="0" allow="pedestrian delivery bicycle" speed="5.01" length="5.03" shape="624.24,2310.07 624.71,2308.77 624.64,2307.64 624.04,2306.68 622.90,2305.89"/>
    </edge>
    <edge id=":10822372137_13" function="internal">
        <lane id=":10822372137_13_0" index="0" allow="pedestrian delivery bicycle" speed="5.56" length="10.07" shape="624.24,2310.07 628.94,2301.17"/>
    </edge>
    <edge id=":10822372137_14" function="internal">
        <lane id=":10822372137_14_0" index="0" allow="pedestrian delivery bicycle" speed="5.56" length="11.02" shape="624.24,2310.07 626.03,2307.56 628.16,2306.17 630.62,2305.89 633.42,2306.72"/>
    </edge>
    <edge id=":10822372137_15" function="internal">
        <lane id=":10822372137_15_0" index="0" allow="pedestrian delivery bicycle" speed="3.65" length="4.67" shape="624.24,2310.07 625.51,2309.39 626.40,2309.41 626.92,2310.14 627.07,2311.57"/>
    </edge>
    <edge id=":10822372138_0" function="internal">
        <lane id=":10822372138_0_0" index="0" allow="pedestrian delivery bicycle" speed="3.65" length="4.67" shape="657.42,2319.42 658.10,2320.69 658.08,2321.58 657.35,2322.10 655.92,2322.24"/>
    </edge>
    <edge id=":10822372139_0" function="internal">
        <lane id=":10822372139_0_0" index="0" allow="pedestrian delivery bicycle" speed="4.77" length="4.41" shape="655.83,2322.20 654.83,2321.89 653.92,2322.07 653.09,2322.73 652.33,2323.88"/>
    </edge>
    <edge id=":10822372139_1" function="internal">
        <lane id=":10822372139_1_0" index="0" allow="pedestrian delivery bicycle" speed="5.56" length="8.96" shape="655.83,2322.20 648.03,2317.78"/>
    </edge>
    <edge id=":10822372139_2" function="internal">
        <lane id=":10822372139_2_0" index="0" allow="pedestrian delivery bicycle" speed="5.56" length="9.76" shape="655.83,2322.20 653.87,2320.70 652.89,2318.80 652.90,2316.51 653.88,2313.82"/>
    </edge>
    <edge id=":10822372139_3" function="internal">
        <lane id=":10822372139_3_0" index="0" allow="pedestrian delivery bicycle" speed="3.65" length="4.67" shape="655.83,2322.20 655.14,2320.93 655.17,2320.03 655.89,2319.52 657.33,2319.37"/>
    </edge>
    <edge id=":10822372139_4" function="internal">
        <lane id=":10822372139_4_0" index="0" allow="pedestrian delivery bicycle" speed="4.92" length="4.67" shape="656.73,2315.28 656.20,2316.65 656.12,2317.79 656.50,2318.69 657.33,2319.37"/>
    </edge>
    <edge id=":10822372139_5" function="internal">
        <lane id=":10822372139_5_0" index="0" allow="pedestrian delivery bicycle" speed="5.56" length="9.66" shape="656.73,2315.28 652.33,2323.88"/>
    </edge>
    <edge id=":10822372139_6" function="internal">
        <lane id=":10822372139_6_0" index="0" allow="pedestrian delivery bicycle" speed="5.56" length="10.48" shape="656.73,2315.28 655.06,2317.64 653.05,2318.85 650.71,2318.90 648.03,2317.78"/>
    </edge>
    <edge id=":10822372139_7" function="internal">
        <lane id=":10822372139_7_0" index="0" allow="pedestrian delivery bicycle" speed="3.65" length="4.67" shape="656.73,2315.28 655.47,2315.98 654.58,2315.97 654.05,2315.25 653.88,2313.82"/>
    </edge>
    <edge id=":10822372139_8" function="internal">
        <lane id=":10822372139_8_0" index="0" allow="pedestrian delivery bicycle" speed="4.97" length="5.08" shape="649.67,2315.04 650.97,2315.57 652.10,2315.55 653.07,2314.97 653.88,2313.82"/>
    </edge>
    <edge id=":10822372139_9" function="internal">
        <lane id=":10822372139_9_0" index="0" allow="pedestrian delivery bicycle" speed="5.56" length="8.80" shape="649.67,2315.04 657.33,2319.37"/>
    </edge>
    <edge id=":10822372139_10" function="internal">
        <lane id=":10822372139_10_0" index="0" allow="pedestrian delivery bicycle" speed="5.56" length="10.39" shape="649.67,2315.04 651.90,2316.82 653.09,2318.89 653.23,2321.24 652.33,2323.88"/>
    </edge>
    <edge id=":10822372139_11" function="internal">
        <lane id=":10822372139_11_0" index="0" allow="pedestrian delivery bicycle" speed="3.65" length="4.67" shape="649.67,2315.04 650.29,2316.34 650.23,2317.23 649.47,2317.71 648.03,2317.78"/>
    </edge>
    <edge id=":10822372139_12" function="internal">
        <lane id=":10822372139_12_0" index="0" allow="pedestrian delivery bicycle" speed="5.56" length="9.62" shape="649.48,2322.42 651.06,2320.10 652.90,2318.82 654.99,2318.58 657.33,2319.37"/>
    </edge>
    <edge id=":10824685915_0" function="internal">
        <lane id=":10824685915_0_0" index="0" allow="pedestrian delivery bicycle" speed="5.02" length="5.02" shape="608.01,2298.50 606.70,2298.07 605.57,2298.17 604.62,2298.79 603.86,2299.94"/>
    </edge>
    <edge id=":10824685915_1" function="internal">
        <lane id=":10824685915_1_0" index="0" allow="pedestrian delivery bicycle" speed="5.56" length="9.41" shape="608.01,2298.50 599.57,2294.34"/>
    </edge>
    <edge id=":10824685915_2" function="internal">
        <lane id=":10824685915_2_0" index="0" allow="pedestrian delivery bicycle" speed="3.65" length="4.67" shape="608.01,2298.50 607.29,2297.25 607.28,2296.36 608.00,2295.82 609.43,2295.64"/>
    </edge>
    <edge id=":10824685915_3" function="internal">
        <lane id=":10824685915_3_0" index="0" allow="pedestrian delivery bicycle" speed="5.56" length="9.42" shape="600.98,2291.47 609.43,2295.64"/>
    </edge>
    <edge id=":10824685915_4" function="internal">
        <lane id=":10824685915_4_0" index="0" allow="pedestrian delivery bicycle" speed="5.56" length="10.17" shape="600.98,2291.47 603.26,2293.03 604.50,2294.96 604.70,2297.26 603.86,2299.94"/>
    </edge>
    <edge id=":10824685915_5" function="internal">
        <lane id=":10824685915_5_0" index="0" allow="pedestrian delivery bicycle" speed="3.65" length="4.67" shape="600.98,2291.47 601.70,2292.71 601.71,2293.61 601.00,2294.15 599.57,2294.34"/>
    </edge>
    <edge id=":10824685915_6" function="internal">
        <lane id=":10824685915_6_0" index="0" allow="pedestrian delivery bicycle" speed="5.09" length="5.06" shape="600.97,2298.56 601.39,2297.23 601.30,2296.07 600.69,2295.11 599.57,2294.34"/>
    </edge>
    <edge id=":10824685915_7" function="internal">
        <lane id=":10824685915_7_0" index="0" allow="pedestrian delivery bicycle" speed="5.56" length="10.24" shape="600.97,2298.56 602.53,2296.22 604.46,2294.95 606.76,2294.76 609.43,2295.64"/>
    </edge>
    <edge id=":10824685915_8" function="internal">
        <lane id=":10824685915_8_0" index="0" allow="pedestrian delivery bicycle" speed="3.65" length="4.67" shape="600.97,2298.56 602.21,2297.82 603.10,2297.81 603.65,2298.51 603.86,2299.94"/>
    </edge>
    <edge id=":10824685917_0" function="internal">
        <lane id=":10824685917_0_0" index="0" allow="pedestrian delivery bicycle" speed="5.56" length="9.41" shape="620.41,2324.09 616.00,2332.40"/>
    </edge>
    <edge id=":10824685917_1" function="internal">
        <lane id=":10824685917_1_0" index="0" allow="pedestrian delivery bicycle" speed="5.56" length="10.19" shape="620.41,2324.09 618.81,2326.25 616.84,2327.41 614.49,2327.58 611.76,2326.75"/>
    </edge>
    <edge id=":10824685917_2" function="internal">
        <lane id=":10824685917_2_0" index="0" allow="pedestrian delivery bicycle" speed="3.65" length="4.67" shape="620.41,2324.09 619.14,2324.78 618.25,2324.75 617.73,2324.03 617.59,2322.59"/>
    </edge>
    <edge id=":10824685917_3" function="internal">
        <lane id=":10824685917_3_0" index="0" allow="pedestrian delivery bicycle" speed="5.25" length="5.25" shape="613.08,2323.84 614.53,2324.29 615.76,2324.23 616.78,2323.66 617.59,2322.59"/>
    </edge>
    <edge id=":10824685917_4" function="internal">
        <lane id=":10824685917_4_0" index="0" allow="pedestrian delivery bicycle" speed="5.56" length="10.47" shape="613.08,2323.84 615.52,2325.40 616.82,2327.35 616.98,2329.68 616.00,2332.40"/>
    </edge>
    <edge id=":10824685917_5" function="internal">
        <lane id=":10824685917_5_0" index="0" allow="pedestrian delivery bicycle" speed="3.65" length="4.67" shape="613.08,2323.84 613.84,2325.06 613.88,2325.96 613.18,2326.52 611.76,2326.75"/>
    </edge>
    <edge id=":10824685917_6" function="internal">